Version 4
SHEET 1 880 680
WIRE 144 112 32 112
WIRE 560 128 448 128
WIRE 64 160 48 160
WIRE 144 160 144 112
WIRE 144 160 128 160
WIRE 480 176 464 176
WIRE 560 176 560 128
WIRE 560 176 544 176
WIRE -208 224 -256 224
WIRE -80 224 -128 224
WIRE -48 224 -48 112
WIRE -48 224 -80 224
WIRE -32 224 -48 224
WIRE 48 224 48 160
WIRE 64 224 48 224
WIRE -256 240 -256 224
WIRE 144 240 144 160
WIRE 144 240 128 240
WIRE 160 240 144 240
WIRE 256 240 240 240
WIRE 368 240 368 128
WIRE 368 240 256 240
WIRE 384 240 368 240
WIRE 464 240 464 176
WIRE 480 240 464 240
WIRE -80 256 -80 224
WIRE 64 256 48 256
WIRE 256 256 256 240
WIRE 560 256 560 176
WIRE 560 256 544 256
WIRE 640 256 560 256
WIRE 480 272 464 272
WIRE 48 320 48 256
WIRE 256 336 256 320
WIRE 464 336 464 272
WIRE -80 352 -80 320
FLAG -256 320 0
FLAG 256 336 0
FLAG 48 320 0
FLAG -80 352 0
FLAG 464 336 0
SYMBOL Opamps\\opamp 96 176 R0
SYMATTR InstName U1
SYMBOL voltage -256 224 R0
WINDOW 123 24 124 Left 2
WINDOW 39 0 0 Left 2
SYMATTR InstName V1
SYMATTR Value ""
SYMATTR Value2 AC 1
SYMBOL res 256 224 R90
WINDOW 0 0 56 VBottom 2
WINDOW 3 32 56 VTop 2
SYMATTR InstName R3
SYMATTR Value 1.2k
SYMBOL cap 240 256 R0
SYMATTR InstName C1
SYMATTR Value 13n
SYMBOL res -224 240 R270
WINDOW 0 32 56 VTop 2
WINDOW 3 0 56 VBottom 2
SYMATTR InstName R1
SYMATTR Value 3k
SYMBOL cap -96 256 R0
SYMATTR InstName C2
SYMATTR Value 2.4n
SYMBOL res -48 240 R270
WINDOW 0 32 56 VTop 2
WINDOW 3 0 56 VBottom 2
SYMATTR InstName R2
SYMATTR Value 1.5k
SYMBOL res -64 128 R270
WINDOW 0 32 56 VTop 2
WINDOW 3 0 56 VBottom 2
SYMATTR InstName R4
SYMATTR Value 3k
SYMBOL cap 64 176 R270
WINDOW 0 32 32 VTop 2
WINDOW 3 0 32 VBottom 2
SYMATTR InstName C3
SYMATTR Value 1n
SYMBOL Opamps\\opamp 512 192 R0
SYMATTR InstName U2
SYMBOL res 368 256 R270
WINDOW 0 32 56 VTop 2
WINDOW 3 0 56 VBottom 2
SYMATTR InstName R5
SYMATTR Value 620
SYMBOL res 352 144 R270
WINDOW 0 32 56 VTop 2
WINDOW 3 0 56 VBottom 2
SYMATTR InstName R6
SYMATTR Value 1.2k
SYMBOL cap 480 192 R270
WINDOW 0 32 32 VTop 2
WINDOW 3 0 32 VBottom 2
SYMATTR InstName C5
SYMATTR Value 1n
TEXT 312 32 Left 2 !.lib opamp.sub
TEXT -328 376 Left 2 !.ac dec 1000 0.1 1Meg
