Version 4
SHEET 1 1620 680
WIRE -16 -416 -128 -416
WIRE 144 -416 64 -416
WIRE 80 -336 80 -352
WIRE -224 -320 -240 -320
WIRE -128 -320 -128 -416
WIRE -128 -320 -144 -320
WIRE 560 -320 560 -336
WIRE 144 -304 144 -416
WIRE 144 -304 112 -304
WIRE 160 -304 144 -304
WIRE 288 -304 240 -304
WIRE 336 -304 320 -304
WIRE 432 -304 416 -304
WIRE 528 -304 512 -304
WIRE 48 -288 32 -288
WIRE 608 -288 592 -288
WIRE 32 -272 32 -288
WIRE 528 -272 512 -272
WIRE 80 -256 80 -272
WIRE 320 -240 320 -304
WIRE 512 -240 512 -272
WIRE 528 -240 512 -240
WIRE 560 -240 560 -256
WIRE -240 -176 -240 -320
WIRE 32 -176 32 -192
WIRE 48 -176 32 -176
FLAG 80 -352 +15
FLAG 80 -256 -15
FLAG -240 -176 0
FLAG 160 -304 Salida
FLAG 32 -176 0
FLAG 560 -336 +15
FLAG 560 -240 -15
FLAG 320 -240 0
FLAG 608 -288 Salida
FLAG 512 -240 0
FLAG 288 -304 0
SYMBOL res -240 -304 R270
WINDOW 0 32 56 VTop 2
WINDOW 3 -287 -398 VBottom 2
SYMATTR InstName R1
SYMATTR Value 10k
SYMBOL res -128 -304 R270
WINDOW 0 32 56 VTop 2
WINDOW 3 -380 74 VBottom 2
SYMATTR InstName R2
SYMATTR Value 10k
SYMBOL res -32 -400 R270
WINDOW 0 38 72 VTop 2
WINDOW 3 -421 614 VBottom 2
SYMATTR InstName R3
SYMATTR Value 10k
SYMBOL tl074\\tl074 80 -368 R0
SYMATTR InstName U1
SYMBOL current 48 -320 R90
WINDOW 0 -32 40 VBottom 2
WINDOW 3 390 2 VTop 2
SYMATTR InstName In-
SYMBOL current 32 -272 R0
WINDOW 3 53 357 Left 2
SYMATTR InstName In+
SYMBOL res 320 -288 R270
WINDOW 0 32 56 VTop 2
WINDOW 3 -287 -398 VBottom 2
SYMATTR InstName Req
SYMATTR Value 10k
SYMBOL tl074\\tl074 560 -352 R0
SYMATTR InstName U2
SYMBOL current 512 -304 R90
WINDOW 0 -32 40 VBottom 2
WINDOW 3 390 2 VTop 2
SYMATTR InstName In1
